# SOGGA11X/Gen Freq Opt=(VeryTight,CalcAll) Int=UltraFine

H2O HARMONIC FREQUENCIES

0 1
  O1
  H2 O1 r2
  H3 O1 r3 H2 a3

   r2 =         0.96900
   r3 =         0.96900
   a3 =       103.97800

H     0
S   4   1.00
      0.754230D+02           0.240650D-02
      0.113500D+02           0.184870D-01
      0.259930D+01           0.897420D-01
      0.735130D+00           0.281110D+00
S   1   1.00
      0.231670D+00           0.100000D+01
S   1   1.00
      0.741470D-01           0.100000D+01
P   1   1.00
      0.160000D+01           0.100000D+01
P   1   1.00
      0.450000D+00           0.100000D+01
D   1   1.00
      0.125000D+01           0.100000D+01
****
O     0
S   7   1.00
      0.147820D+05           0.535190D-03
      0.221730D+04           0.413750D-02
      0.504740D+03           0.212450D-01
      0.142870D+03           0.824530D-01
      0.463000D+02           0.236710D+00
      0.163370D+02           0.440390D+00
      0.598280D+01           0.364650D+00
S   7   1.00
      0.221730D+04          -0.192750D-05
      0.504740D+03          -0.579640D-04
      0.142870D+03          -0.794940D-03
      0.463000D+02          -0.731250D-02
      0.163370D+02          -0.405740D-01
      0.598280D+01          -0.915940D-01
      0.167180D+01           0.209400D+00
S   1   1.00
      0.646620D+00           0.100000D+01
S   1   1.00
      0.216690D+00           0.100000D+01
P   4   1.00
      0.604240D+02           0.689490D-02
      0.139350D+02           0.490050D-01
      0.415310D+01           0.182550D+00
      0.141580D+01           0.376330D+00
P   1   1.00
      0.475490D+00           0.100000D+01
P   1   1.00
      0.145290D+00           0.100000D+01
D   1   1.00
      0.220000D+01           0.100000D+01
D   1   1.00
      0.650000D+00           0.100000D+01
F   1   1.00
      0.110000D+01           0.100000D+01
****


