%NprocShared=4
%chk=checkpoint.chk
# wB97xD/Gen Freq Opt=(VeryTight,ZMatrix,CalcAll) Int=UltraFine

CFC-14 - CF4 HARMONIC FREQUENCIES

0  1
C
F  1  r2
F  1  r3  2  a3
F  1  r4  2  a4  3  d4
F  1  r5  2  a5  3  d5
Variables:
r2= 1.3435
r3= 1.3435
a3= 109.47
r4= 1.3435
a4= 109.47
d4= 240.00
r5= 1.3435
a5= 109.47
d5= 120.00

C     0
S   5   1.00
      0.125260D+04           0.557360D-02
      0.188570D+03           0.414960D-01
      0.428390D+02           0.182630D+00
      0.118180D+02           0.461290D+00
      0.355670D+01           0.449310D+00
S   5   1.00
      0.188570D+03          -0.274400D-03
      0.428390D+02          -0.255830D-02
      0.118180D+02          -0.333750D-01
      0.355670D+01          -0.873050D-01
      0.542580D+00           0.534150D+00
S   1   1.00
      0.160580D+00           0.100000D+01
S   1   1.00
      0.448560D-01           0.100000D+01
P   3   1.00
      0.914260D+01           0.444990D-01
      0.192980D+01           0.231080D+00
      0.525220D+00           0.512270D+00
P   1   1.00
      0.136080D+00           0.100000D+01
P   1   1.00
      0.335180D-01           0.100000D+01
D   1   1.00
      0.800000D+00           0.100000D+01
D   1   1.00
      0.100550D+00           0.100000D+01
****
F     0
S   5   1.00
      0.295460D+04           0.533370D-02
      0.444620D+03           0.398270D-01
      0.101050D+03           0.178020D+00
      0.280680D+02           0.459170D+00
      0.858370D+01           0.453520D+00
S   5   1.00
      0.444620D+03          -0.329620D-03
      0.101050D+03          -0.260830D-02
      0.280680D+02          -0.371500D-01
      0.858370D+01          -0.881780D-01
      0.139860D+01           0.531350D+00
S   1   1.00
      0.399690D+00           0.100000D+01
S   1   1.00
      0.108020D+00           0.100000D+01
P   3   1.00
      0.218830D+02           0.502440D-01
      0.477690D+01           0.254240D+00
      0.128230D+01           0.512200D+00
P   1   1.00
      0.311270D+00           0.100000D+01
P   1   1.00
      0.720540D-01           0.100000D+01
D   1   1.00
      0.110000D+01           0.100000D+01
D   1   1.00
      0.216160D+00           0.100000D+01
****


