%NprocShared=4
%chk=checkpoint.chk
# B2PLYP/cc-pVTZ Freq Opt=(VeryTight,ZMatrix,CalcAll) Int=UltraFine

CFC-22 - HClF2 HARMONIC FREQUENCIES

0  1
C
F  1  r2
Cl  1  r3  2  a3
F  1  r4  2  a4  3  d4
H  1  r5  2  a5  3  d5
Variables:
r2= 1.3554
r3= 1.7607
a3= 110.09
r4= 1.3552
a4= 107.02
d4= 240.09
r5= 1.0931
a5= 109.45
d5= 121.56


