%NprocShared=4
%chk=checkpoint.chk
# B2PLYP/cc-pVTZ Freq Opt=(VeryTight,ZMatrix,CalcAll) Int=UltraFine

CFC-12 - CCl2F2 HARMONIC FREQUENCIES

0  1
C
F  1  r2
Cl  1  r3  2  a3
F  1  r4  2  a4  3  d4
Cl  1  r5  2  a5  3  d5
Variables:
r2= 1.3579
r3= 1.7653
a3= 109.61
r4= 1.3578
a4= 106.61
d4= 241.28
r5= 1.7657
a5= 109.60
d5= 122.73


