%NprocShared=4
%chk=checkpoint.chk
# M06/Def2TZVP Freq=(anharmonic,ReadAnharm) Opt=CalcAll

Anharmonic frequencies for ethene using VPT2

0 1
C         -0.60396        1.82801        0.00000
C          0.73176        1.84069        0.00000
H         -1.17088        2.56631        0.55840
H         -1.15677        1.07908       -0.55840
H          1.28457        2.58962        0.55840
H          1.29868        1.10239       -0.55840

PT2Model=GVPT2


