%NprocShared=4
%chk=checkpoint.chk
# M06/Def2TZVP Freq=(anharmonic,ReadAnharm) Opt=CalcAll

Anharmonic frequencies for silane using VPT2

0 1
Si         0.00646        1.04427       -0.00000
H          1.49146        1.04427        0.00000
H         -0.48854        0.03020       -0.96533
H         -0.48854        2.38730       -0.39554
H         -0.48854        0.71530        1.36087

PT2Model=GVPT2


